examples/feeders/2_PAL2_1/012_cargasMT_1_1.dss
New Load.MT_205454_M1 bus1=67841.1.2.3.4 phases=3 conn=Delta model=2 kv=23.1 kw=0.657995 pf=0.92 daily=MT5_DU status=variable vmaxpu=1.5 vminpu=0.93
New Load.MT_205454_M2 bus1=67841.1.2.3.4 phases=3 conn=Delta model=3 kv=23.1 kw=0.657995 pf=0.92 daily=MT5_DU status=variable vmaxpu=1.5 vminpu=0.93
New Load.MT_205482_M1 bus1=765611.1.2.3.4 phases=3 conn=Delta model=2 kv=23.1 kw=71.1950375 pf=0.92 daily=MT4_DU status=variable vmaxpu=1.5 vminpu=0.93
New Load.MT_205482_M2 bus1=765611.1.2.3.4 phases=3 conn=Delta model=3 kv=23.1 kw=71.1950375 pf=0.92 daily=MT4_DU status=variable vmaxpu=1.5 vminpu=0.93
New Load.MT_205582_M1 bus1=70001.1.2.3.4 phases=3 conn=Delta model=2 kv=23.1 kw=2.420077 pf=0.92 daily=MT1_DU status=variable vmaxpu=1.5 vminpu=0.93
New Load.MT_205582_M2 bus1=70001.1.2.3.4 phases=3 conn=Delta model=3 kv=23.1 kw=2.420077 pf=0.92 daily=MT1_DU status=variable vmaxpu=1.5 vminpu=0.93
New Load.MT_205585_M1 bus1=58431.1.2.3.4 phases=3 conn=Delta model=2 kv=23.1 kw=0.5395305 pf=0.92 daily=MT3_DU status=variable vmaxpu=1.5 vminpu=0.93
New Load.MT_205585_M2 bus1=58431.1.2.3.4 phases=3 conn=Delta model=3 kv=23.1 kw=0.5395305 pf=0.92 daily=MT3_DU status=variable vmaxpu=1.5 vminpu=0.93
New Load.MT_205600_M1 bus1=64171.1.2.3.4 phases=3 conn=Delta model=2 kv=23.1 kw=3.439717 pf=0.92 daily=MT5_DU status=variable vmaxpu=1.5 vminpu=0.93
New Load.MT_205600_M2 bus1=64171.1.2.3.4 phases=3 conn=Delta model=3 kv=23.1 kw=3.439717 pf=0.92 daily=MT5_DU status=variable vmaxpu=1.5 vminpu=0.93
New Load.MT_205613_M1 bus1=797711.1.2.3.4 phases=3 conn=Delta model=2 kv=23.1 kw=3.3471045 pf=0.92 daily=MT2_DU status=variable vmaxpu=1.5 vminpu=0.93
New Load.MT_205613_M2 bus1=797711.1.2.3.4 phases=3 conn=Delta model=3 kv=23.1 kw=3.3471045 pf=0.92 daily=MT2_DU status=variable vmaxpu=1.5 vminpu=0.93
New Load.MT_205639_M1 bus1=43311.1.2.3.4 phases=3 conn=Delta model=2 kv=23.1 kw=0.862437 pf=0.92 daily=MT4_DU status=variable vmaxpu=1.5 vminpu=0.93
New Load.MT_205639_M2 bus1=43311.1.2.3.4 phases=3 conn=Delta model=3 kv=23.1 kw=0.862437 pf=0.92 daily=MT4_DU status=variable vmaxpu=1.5 vminpu=0.93
New Load.MT_209728_M1 bus1=56191.1.2.3.4 phases=3 conn=Delta model=2 kv=23.1 kw=30.9298815 pf=0.92 daily=MT6_DU status=variable vmaxpu=1.5 vminpu=0.93
New Load.MT_209728_M2 bus1=56191.1.2.3.4 phases=3 conn=Delta model=3 kv=23.1 kw=30.9298815 pf=0.92 daily=MT6_DU status=variable vmaxpu=1.5 vminpu=0.93
New Load.MT_219379_M1 bus1=319791.1.2.3.4 phases=3 conn=Delta model=2 kv=23.1 kw=18.231647 pf=0.92 daily=MT3_DU status=variable vmaxpu=1.5 vminpu=0.93
New Load.MT_219379_M2 bus1=319791.1.2.3.4 phases=3 conn=Delta model=3 kv=23.1 kw=18.231647 pf=0.92 daily=MT3_DU status=variable vmaxpu=1.5 vminpu=0.93
New Load.MT_219380_M1 bus1=319891.1.2.3.4 phases=3 conn=Delta model=2 kv=23.1 kw=6.320786 pf=0.92 daily=MT5_DU status=variable vmaxpu=1.5 vminpu=0.93
New Load.MT_219380_M2 bus1=319891.1.2.3.4 phases=3 conn=Delta model=3 kv=23.1 kw=6.320786 pf=0.92 daily=MT5_DU status=variable vmaxpu=1.5 vminpu=0.93
New Load.MT_221222_M1 bus1=318941.1.2.3.4 phases=3 conn=Delta model=2 kv=23.1 kw=18.7522395 pf=0.92 daily=MT2_DU status=variable vmaxpu=1.5 vminpu=0.93
New Load.MT_221222_M2 bus1=318941.1.2.3.4 phases=3 conn=Delta model=3 kv=23.1 kw=18.7522395 pf=0.92 daily=MT2_DU status=variable vmaxpu=1.5 vminpu=0.93
New Load.MT_221225_M1 bus1=307361.1.2.3.4 phases=3 conn=Delta model=2 kv=23.1 kw=1.3786965 pf=0.92 daily=MT6_DU status=variable vmaxpu=1.5 vminpu=0.93
New Load.MT_221225_M2 bus1=307361.1.2.3.4 phases=3 conn=Delta model=3 kv=23.1 kw=1.3786965 pf=0.92 daily=MT6_DU status=variable vmaxpu=1.5 vminpu=0.93
New Load.MT_221701_M1 bus1=586351.1.2.3.4 phases=3 conn=Delta model=2 kv=23.1 kw=93.0929845 pf=0.92 daily=MT2_DU status=variable vmaxpu=1.5 vminpu=0.93
New Load.MT_221701_M2 bus1=586351.1.2.3.4 phases=3 conn=Delta model=3 kv=23.1 kw=93.0929845 pf=0.92 daily=MT2_DU status=variable vmaxpu=1.5 vminpu=0.93
New Load.MT_222157_M1 bus1=5661.1.2.3.4 phases=3 conn=Delta model=2 kv=23.1 kw=2.998909 pf=0.92 daily=MT2_DU status=variable vmaxpu=1.5 vminpu=0.93
New Load.MT_222157_M2 bus1=5661.1.2.3.4 phases=3 conn=Delta model=3 kv=23.1 kw=2.998909 pf=0.92 daily=MT2_DU status=variable vmaxpu=1.5 vminpu=0.93
New Load.MT_223163_M1 bus1=627761.1.2.3.4 phases=3 conn=Delta model=2 kv=23.1 kw=78.406364 pf=0.92 daily=MT6_DU status=variable vmaxpu=1.5 vminpu=0.93
New Load.MT_223163_M2 bus1=627761.1.2.3.4 phases=3 conn=Delta model=3 kv=23.1 kw=78.406364 pf=0.92 daily=MT6_DU status=variable vmaxpu=1.5 vminpu=0.93
New Load.MT_223642_M1 bus1=755191.1.2.3.4 phases=3 conn=Delta model=2 kv=23.1 kw=0.8494905 pf=0.92 daily=MT5_DU status=variable vmaxpu=1.5 vminpu=0.93
New Load.MT_223642_M2 bus1=755191.1.2.3.4 phases=3 conn=Delta model=3 kv=23.1 kw=0.8494905 pf=0.92 daily=MT5_DU status=variable vmaxpu=1.5 vminpu=0.93
New Load.MT_224537_M1 bus1=551951.1.2.3.4 phases=3 conn=Delta model=2 kv=23.1 kw=75.053218 pf=0.92 daily=MT5_DU status=variable vmaxpu=1.5 vminpu=0.93
New Load.MT_224537_M2 bus1=551951.1.2.3.4 phases=3 conn=Delta model=3 kv=23.1 kw=75.053218 pf=0.92 daily=MT5_DU status=variable vmaxpu=1.5 vminpu=0.93
New Load.MT_228378_M1 bus1=646001.1.2.3.4 phases=3 conn=Delta model=2 kv=23.1 kw=28.787284 pf=0.92 daily=MT4_DU status=variable vmaxpu=1.5 vminpu=0.93
New Load.MT_228378_M2 bus1=646001.1.2.3.4 phases=3 conn=Delta model=3 kv=23.1 kw=28.787284 pf=0.92 daily=MT4_DU status=variable vmaxpu=1.5 vminpu=0.93
New Load.MT_228381_M1 bus1=636541.1.2.3.4 phases=3 conn=Delta model=2 kv=23.1 kw=17.7347515 pf=0.92 daily=MT3_DU status=variable vmaxpu=1.5 vminpu=0.93
New Load.MT_228381_M2 bus1=636541.1.2.3.4 phases=3 conn=Delta model=3 kv=23.1 kw=17.7347515 pf=0.92 daily=MT3_DU status=variable vmaxpu=1.5 vminpu=0.93
New Load.MT_228501_M1 bus1=70071.1.2.3.4 phases=3 conn=Delta model=2 kv=23.1 kw=28.0160705 pf=0.92 daily=MT3_DU status=variable vmaxpu=1.5 vminpu=0.93
New Load.MT_228501_M2 bus1=70071.1.2.3.4 phases=3 conn=Delta model=3 kv=23.1 kw=28.0160705 pf=0.92 daily=MT3_DU status=variable vmaxpu=1.5 vminpu=0.93
New Load.MT_230301_M1 bus1=664831.1.2.3.4 phases=3 conn=Delta model=2 kv=23.1 kw=18.4785135 pf=0.92 daily=MT2_DU status=variable vmaxpu=1.5 vminpu=0.93
New Load.MT_230301_M2 bus1=664831.1.2.3.4 phases=3 conn=Delta model=3 kv=23.1 kw=18.4785135 pf=0.92 daily=MT2_DU status=variable vmaxpu=1.5 vminpu=0.93
New Load.MT_230554_M1 bus1=307571.1.2.3.4 phases=3 conn=Delta model=2 kv=23.1 kw=107.379063 pf=0.92 daily=MT2_DU status=variable vmaxpu=1.5 vminpu=0.93
New Load.MT_230554_M2 bus1=307571.1.2.3.4 phases=3 conn=Delta model=3 kv=23.1 kw=107.379063 pf=0.92 daily=MT2_DU status=variable vmaxpu=1.5 vminpu=0.93
New Load.MT_231245_M1 bus1=70331.1.2.3.4 phases=3 conn=Delta model=2 kv=23.1 kw=1.769532 pf=0.92 daily=MT5_DU status=variable vmaxpu=1.5 vminpu=0.93
New Load.MT_231245_M2 bus1=70331.1.2.3.4 phases=3 conn=Delta model=3 kv=23.1 kw=1.769532 pf=0.92 daily=MT5_DU status=variable vmaxpu=1.5 vminpu=0.93
New Load.MT_231246_M1 bus1=113401.1.2.3.4 phases=3 conn=Delta model=2 kv=23.1 kw=6.19853 pf=0.92 daily=MT6_DU status=variable vmaxpu=1.5 vminpu=0.93
New Load.MT_231246_M2 bus1=113401.1.2.3.4 phases=3 conn=Delta model=3 kv=23.1 kw=6.19853 pf=0.92 daily=MT6_DU status=variable vmaxpu=1.5 vminpu=0.93
New Load.MT_231631_M1 bus1=709121.1.2.3.4 phases=3 conn=Delta model=2 kv=23.1 kw=31.320288 pf=0.92 daily=MT5_DU status=variable vmaxpu=1.5 vminpu=0.93
New Load.MT_231631_M2 bus1=709121.1.2.3.4 phases=3 conn=Delta model=3 kv=23.1 kw=31.320288 pf=0.92 daily=MT5_DU status=variable vmaxpu=1.5 vminpu=0.93
New Load.MT_231772_M1 bus1=552271.1.2.3.4 phases=3 conn=Delta model=2 kv=23.1 kw=34.153468 pf=0.92 daily=MT1_DU status=variable vmaxpu=1.5 vminpu=0.93
New Load.MT_231772_M2 bus1=552271.1.2.3.4 phases=3 conn=Delta model=3 kv=23.1 kw=34.153468 pf=0.92 daily=MT1_DU status=variable vmaxpu=1.5 vminpu=0.93
New Load.MT_231936_M1 bus1=714351.1.2.3.4 phases=3 conn=Delta model=2 kv=23.1 kw=34.264709 pf=0.92 daily=MT5_DU status=variable vmaxpu=1.5 vminpu=0.93
New Load.MT_231936_M2 bus1=714351.1.2.3.4 phases=3 conn=Delta model=3 kv=23.1 kw=34.264709 pf=0.92 daily=MT5_DU status=variable vmaxpu=1.5 vminpu=0.93
New Load.MT_232109_M1 bus1=673291.1.2.3.4 phases=3 conn=Delta model=2 kv=23.1 kw=44.5061105 pf=0.92 daily=MT5_DU status=variable vmaxpu=1.5 vminpu=0.93
New Load.MT_232109_M2 bus1=673291.1.2.3.4 phases=3 conn=Delta model=3 kv=23.1 kw=44.5061105 pf=0.92 daily=MT5_DU status=variable vmaxpu=1.5 vminpu=0.93
New Load.MT_232140_M1 bus1=717901.1.2.3.4 phases=3 conn=Delta model=2 kv=23.1 kw=16.6643395 pf=0.92 daily=MT1_DU status=variable vmaxpu=1.5 vminpu=0.93
New Load.MT_232140_M2 bus1=717901.1.2.3.4 phases=3 conn=Delta model=3 kv=23.1 kw=16.6643395 pf=0.92 daily=MT1_DU status=variable vmaxpu=1.5 vminpu=0.93
New Load.MT_232341_M1 bus1=716391.1.2.3.4 phases=3 conn=Delta model=2 kv=23.1 kw=82.409622 pf=0.92 daily=MT2_DU status=variable vmaxpu=1.5 vminpu=0.93
New Load.MT_232341_M2 bus1=716391.1.2.3.4 phases=3 conn=Delta model=3 kv=23.1 kw=82.409622 pf=0.92 daily=MT2_DU status=variable vmaxpu=1.5 vminpu=0.93
New Load.MT_233002_M1 bus1=716051.1.2.3.4 phases=3 conn=Delta model=2 kv=23.1 kw=48.7699915 pf=0.92 daily=MT6_DU status=variable vmaxpu=1.5 vminpu=0.93
New Load.MT_233002_M2 bus1=716051.1.2.3.4 phases=3 conn=Delta model=3 kv=23.1 kw=48.7699915 pf=0.92 daily=MT6_DU status=variable vmaxpu=1.5 vminpu=0.93
New Load.MT_233143_M1 bus1=729351.1.2.3.4 phases=3 conn=Delta model=2 kv=23.1 kw=46.318935 pf=0.92 daily=MT4_DU status=variable vmaxpu=1.5 vminpu=0.93
New Load.MT_233143_M2 bus1=729351.1.2.3.4 phases=3 conn=Delta model=3 kv=23.1 kw=46.318935 pf=0.92 daily=MT4_DU status=variable vmaxpu=1.5 vminpu=0.93
New Load.MT_233877_M1 bus1=746081.1.2.3.4 phases=3 conn=Delta model=2 kv=23.1 kw=36.8183145 pf=0.92 daily=MT1_DU status=variable vmaxpu=1.5 vminpu=0.93
New Load.MT_233877_M2 bus1=746081.1.2.3.4 phases=3 conn=Delta model=3 kv=23.1 kw=36.8183145 pf=0.92 daily=MT1_DU status=variable vmaxpu=1.5 vminpu=0.93
New Load.MT_233879_M1 bus1=741181.1.2.3.4 phases=3 conn=Delta model=2 kv=23.1 kw=0.093336 pf=0.92 daily=MT1_DU status=variable vmaxpu=1.5 vminpu=0.93
New Load.MT_233879_M2 bus1=741181.1.2.3.4 phases=3 conn=Delta model=3 kv=23.1 kw=0.093336 pf=0.92 daily=MT1_DU status=variable vmaxpu=1.5 vminpu=0.93
New Load.MT_233985_M1 bus1=198911.1.2.3.4 phases=3 conn=Delta model=2 kv=23.1 kw=7.6743895 pf=0.92 daily=MT2_DU status=variable vmaxpu=1.5 vminpu=0.93
New Load.MT_233985_M2 bus1=198911.1.2.3.4 phases=3 conn=Delta model=3 kv=23.1 kw=7.6743895 pf=0.92 daily=MT2_DU status=variable vmaxpu=1.5 vminpu=0.93
New Load.MT_233986_M1 bus1=685411.1.2.3.4 phases=3 conn=Delta model=2 kv=23.1 kw=80.842573 pf=0.92 daily=MT1_DU status=variable vmaxpu=1.5 vminpu=0.93
New Load.MT_233986_M2 bus1=685411.1.2.3.4 phases=3 conn=Delta model=3 kv=23.1 kw=80.842573 pf=0.92 daily=MT1_DU status=variable vmaxpu=1.5 vminpu=0.93
New Load.MT_234091_M1 bus1=741061.1.2.3.4 phases=3 conn=Delta model=2 kv=23.1 kw=10.6732985 pf=0.92 daily=MT2_DU status=variable vmaxpu=1.5 vminpu=0.93
New Load.MT_234091_M2 bus1=741061.1.2.3.4 phases=3 conn=Delta model=3 kv=23.1 kw=10.6732985 pf=0.92 daily=MT2_DU status=variable vmaxpu=1.5 vminpu=0.93
New Load.MT_234131_M1 bus1=746371.1.2.3.4 phases=3 conn=Delta model=2 kv=23.1 kw=30.8797045 pf=0.92 daily=MT5_DU status=variable vmaxpu=1.5 vminpu=0.93
New Load.MT_234131_M2 bus1=746371.1.2.3.4 phases=3 conn=Delta model=3 kv=23.1 kw=30.8797045 pf=0.92 daily=MT5_DU status=variable vmaxpu=1.5 vminpu=0.93
New Load.MT_234523_M1 bus1=690721.1.2.3.4 phases=3 conn=Delta model=2 kv=23.1 kw=60.777456 pf=0.92 daily=MT5_DU status=variable vmaxpu=1.5 vminpu=0.93
New Load.MT_234523_M2 bus1=690721.1.2.3.4 phases=3 conn=Delta model=3 kv=23.1 kw=60.777456 pf=0.92 daily=MT5_DU status=variable vmaxpu=1.5 vminpu=0.93
New Load.MT_234525_M1 bus1=69511.1.2.3.4 phases=3 conn=Delta model=2 kv=23.1 kw=38.4155085 pf=0.92 daily=MT1_DU status=variable vmaxpu=1.5 vminpu=0.93
New Load.MT_234525_M2 bus1=69511.1.2.3.4 phases=3 conn=Delta model=3 kv=23.1 kw=38.4155085 pf=0.92 daily=MT1_DU status=variable vmaxpu=1.5 vminpu=0.93
New Load.MT_234831_M1 bus1=498101.1.2.3.4 phases=3 conn=Delta model=2 kv=23.1 kw=0.836185 pf=0.92 daily=MT6_DU status=variable vmaxpu=1.5 vminpu=0.93
New Load.MT_234831_M2 bus1=498101.1.2.3.4 phases=3 conn=Delta model=3 kv=23.1 kw=0.836185 pf=0.92 daily=MT6_DU status=variable vmaxpu=1.5 vminpu=0.93
New Load.MT_236680_M1 bus1=802791.1.2.3.4 phases=3 conn=Delta model=2 kv=23.1 kw=2.3800755 pf=0.92 daily=MT1_DU status=variable vmaxpu=1.5 vminpu=0.93
New Load.MT_236680_M2 bus1=802791.1.2.3.4 phases=3 conn=Delta model=3 kv=23.1 kw=2.3800755 pf=0.92 daily=MT1_DU status=variable vmaxpu=1.5 vminpu=0.93
New Load.MT_237165_M1 bus1=791601.1.2.3.4 phases=3 conn=Delta model=2 kv=23.1 kw=1.654836 pf=0.92 daily=MT4_DU status=variable vmaxpu=1.5 vminpu=0.93
New Load.MT_237165_M2 bus1=791601.1.2.3.4 phases=3 conn=Delta model=3 kv=23.1 kw=1.654836 pf=0.92 daily=MT4_DU status=variable vmaxpu=1.5 vminpu=0.93
New Load.MT_238513_M1 bus1=812401.1.2.3.4 phases=3 conn=Delta model=2 kv=23.1 kw=0 pf=0.92 daily=MT5_DU status=variable vmaxpu=1.5 vminpu=0.93
New Load.MT_238513_M2 bus1=812401.1.2.3.4 phases=3 conn=Delta model=3 kv=23.1 kw=0 pf=0.92 daily=MT5_DU status=variable vmaxpu=1.5 vminpu=0.93
New Load.MT_238516_M1 bus1=816721.1.2.3.4 phases=3 conn=Delta model=2 kv=23.1 kw=0 pf=0.92 daily=MT6_DU status=variable vmaxpu=1.5 vminpu=0.93
New Load.MT_238516_M2 bus1=816721.1.2.3.4 phases=3 conn=Delta model=3 kv=23.1 kw=0 pf=0.92 daily=MT6_DU status=variable vmaxpu=1.5 vminpu=0.93
New Load.MT_238517_M1 bus1=70331.1.2.3.4 phases=3 conn=Delta model=2 kv=23.1 kw=0 pf=0.92 daily=MT4_DU status=variable vmaxpu=1.5 vminpu=0.93
New Load.MT_238517_M2 bus1=70331.1.2.3.4 phases=3 conn=Delta model=3 kv=23.1 kw=0 pf=0.92 daily=MT4_DU status=variable vmaxpu=1.5 vminpu=0.93
New Load.MT_238519_M1 bus1=814641.1.2.3.4 phases=3 conn=Delta model=2 kv=23.1 kw=0 pf=0.92 daily=MT2_DU status=variable vmaxpu=1.5 vminpu=0.93
New Load.MT_238519_M2 bus1=814641.1.2.3.4 phases=3 conn=Delta model=3 kv=23.1 kw=0 pf=0.92 daily=MT2_DU status=variable vmaxpu=1.5 vminpu=0.93
New Load.MT_238520_M1 bus1=810291.1.2.3.4 phases=3 conn=Delta model=2 kv=23.1 kw=0 pf=0.92 daily=MT2_DU status=variable vmaxpu=1.5 vminpu=0.93
New Load.MT_238520_M2 bus1=810291.1.2.3.4 phases=3 conn=Delta model=3 kv=23.1 kw=0 pf=0.92 daily=MT2_DU status=variable vmaxpu=1.5 vminpu=0.93
New Load.MT_239123_M1 bus1=319791.1.2.3.4 phases=3 conn=Delta model=2 kv=23.1 kw=0 pf=0.92 daily=MT5_DU status=variable vmaxpu=1.5 vminpu=0.93
New Load.MT_239123_M2 bus1=319791.1.2.3.4 phases=3 conn=Delta model=3 kv=23.1 kw=0 pf=0.92 daily=MT5_DU status=variable vmaxpu=1.5 vminpu=0.93
New Load.MT_3933388_M1 bus1=734871.1.2.3.4 phases=3 conn=Delta model=2 kv=23.1 kw=32.8772745 pf=0.92 daily=MT3_DU status=variable vmaxpu=1.5 vminpu=0.93
New Load.MT_3933388_M2 bus1=734871.1.2.3.4 phases=3 conn=Delta model=3 kv=23.1 kw=32.8772745 pf=0.92 daily=MT3_DU status=variable vmaxpu=1.5 vminpu=0.93
New Load.MT_630304_M1 bus1=288601.1.2.3.4 phases=3 conn=Delta model=2 kv=23.1 kw=3.7708745 pf=0.92 daily=MT5_DU status=variable vmaxpu=1.5 vminpu=0.93
New Load.MT_630304_M2 bus1=288601.1.2.3.4 phases=3 conn=Delta model=3 kv=23.1 kw=3.7708745 pf=0.92 daily=MT5_DU status=variable vmaxpu=1.5 vminpu=0.93
